feeders/18_SE001_1/008_segmentoBT.dss
New Line.SBT_29025 phases=2 bus1=ET15_1106.1.4 bus2=BT236811.1.4 linecode=60_2 length=0.04383 units=km
New Line.SBT_26870 phases=2 bus1=BT298001.2.4 bus2=BT647551.2.4 linecode=60_2 length=0.12034 units=km
New Line.SBT_26871 phases=2 bus1=ET15_1391.2.4 bus2=BT297991.2.4 linecode=60_2 length=0.07831 units=km
New Line.SBT_28774 phases=2 bus1=BT298031.1.4 bus2=BT298041.1.4 linecode=60_2 length=0.12385 units=km
New Line.SBT_14767 phases=2 bus1=BT647551.2.4 bus2=BT423961.2.4 linecode=60_2 length=0.07981 units=km
New Line.SBT_14768 phases=2 bus1=BT297991.2.4 bus2=BT298001.2.4 linecode=60_2 length=0.10011 units=km
New Line.SBT_24808 phases=3 bus1=ET15_1391.1.2.4 bus2=BT298021.1.2.4 linecode=44_3 length=0.09902 units=km
New Line.SBT_24963 phases=2 bus1=BT423961.2.4 bus2=BT298011.2.4 linecode=60_2 length=0.07908 units=km
New Line.SBT_25054 phases=3 bus1=BT298021.1.2.4 bus2=BT298031.1.2.4 linecode=44_3 length=0.12138 units=km
New Line.SBT_22610 phases=4 bus1=ET15_1927.1.2.3.4 bus2=BT684901.1.2.3.4 linecode=73_4 length=0.05376 units=km
New Line.SBT_22712 phases=4 bus1=BT302251.1.2.3.4 bus2=BT341811.1.2.3.4 linecode=73_4 length=0.04205 units=km
New Line.SBT_22755 phases=4 bus1=BT302241.1.2.3.4 bus2=BT302251.1.2.3.4 linecode=73_4 length=0.06044 units=km
New Line.SBT_7362 phases=4 bus1=BT341811.1.2.3.4 bus2=BT302261.1.2.3.4 linecode=73_4 length=0.04168 units=km
New Line.SBT_7437 phases=4 bus1=BT684901.1.2.3.4 bus2=BT302241.1.2.3.4 linecode=73_4 length=0.03008 units=km
New Line.SBT_22204 phases=2 bus1=BT638141.2.4 bus2=BT236841.2.4 linecode=60_2 length=0.06259 units=km
New Line.SBT_11488 phases=2 bus1=ET15_2257.2.4 bus2=BT638151.2.4 linecode=60_2 length=0.12123 units=km
New Line.SBT_11489 phases=2 bus1=BT638151.2.4 bus2=BT638141.2.4 linecode=60_2 length=0.07799 units=km
New Line.SBT_14148 phases=2 bus1=ET15_3040.1.4 bus2=BT310751.1.4 linecode=60_2 length=0.0228 units=km
New Line.SBT_22739 phases=4 bus1=ET15_3285.1.2.3.4 bus2=BT233351.1.2.3.4 linecode=92_4 length=0.07597 units=km
New Line.SBT_23464 phases=3 bus1=BT233331.1.2.4 bus2=BT233322.1.2.4 linecode=44_3 length=0.09794 units=km
New Line.SBT_7406 phases=3 bus1=ET15_3285.1.2.4 bus2=BT233331.1.2.4 linecode=44_3 length=0.08395 units=km
New Line.SBT_26929 phases=3 bus1=ET15_4154.1.2.4 bus2=BT658231.1.2.4 linecode=76_3 length=0.05413 units=km
New Line.SBT_14869 phases=3 bus1=BT658231.1.2.4 bus2=BT658251.1.2.4 linecode=76_3 length=0.05064 units=km
New Line.SBT_12529 phases=3 bus1=ET15_803.1.2.4 bus2=BT298991.1.2.4 linecode=44_3 length=0.04838 units=km
New Line.SBT_23463 phases=3 bus1=ET15_806.1.2.4 bus2=BT233301.1.2.4 linecode=91_3 length=0.10359 units=km
New Line.SBT_18384 phases=3 bus1=BT233271.1.2.4 bus2=BT233281.1.2.4 linecode=91_3 length=0.0471 units=km
New Line.SBT_7407 phases=3 bus1=BT233291.1.2.4 bus2=BT233271.1.2.4 linecode=91_3 length=0.0836 units=km
New Line.SBT_8675 phases=3 bus1=BT233301.1.2.4 bus2=BT233291.1.2.4 linecode=91_3 length=0.09762 units=km
New Line.SBT_8039 phases=4 bus1=ET17_1065.1.2.3.4 bus2=BT230491.1.2.3.4 linecode=73_4 length=0.06279 units=km
New Line.SBT_28357 phases=4 bus1=BT230491.1.2.3.4 bus2=BT692101.1.2.3.4 linecode=73_4 length=0.038 units=km
New Line.SBT_31824 phases=4 bus1=BT556311.1.2.3.4 bus2=BT772851.1.2.3.4 linecode=73_4 length=0.06412 units=km
New Line.SBT_31825 phases=4 bus1=BT772851.1.2.3.4 bus2=BT772861.1.2.3.4 linecode=73_4 length=0.06361 units=km
New Line.SBT_23101 phases=4 bus1=BT692101.1.2.3.4 bus2=BT230501.1.2.3.4 linecode=73_4 length=0.09036 units=km
New Line.SBT_12201 phases=4 bus1=ET17_1065.1.2.3.4 bus2=BT556311.1.2.3.4 linecode=73_4 length=0.12093 units=km
New Line.SBT_23311 phases=2 bus1=BT183311.1.4 bus2=BT245231.1.4 linecode=62_2 length=0.08324 units=km
New Line.SBT_18389 phases=3 bus1=ET17_1456.1.2.4 bus2=BT183311.1.2.4 linecode=44_3 length=0.04428 units=km
New Line.SBT_8270 phases=3 bus1=ET17_1456.1.2.4 bus2=BT183331.1.2.4 linecode=44_3 length=0.05099 units=km
New Line.SBT_8527 phases=2 bus1=BT183331.1.4 bus2=BT264301.1.4 linecode=60_2 length=0.02563 units=km
New Line.SBT_8528 phases=3 bus1=BT183331.1.2.4 bus2=BT183341.1.2.4 linecode=44_3 length=0.13092 units=km
New Line.SBT_9352 phases=2 bus1=BT297141.2.4 bus2=BT349371.2.4 linecode=60_2 length=0.06854 units=km
New Line.SBT_9353 phases=2 bus1=BT287531.1.4 bus2=BT287521.1.4 linecode=60_2 length=0.03324 units=km
New Line.SBT_9527 phases=3 bus1=BT659211.1.2.4 bus2=BT297141.1.2.4 linecode=44_3 length=0.05536 units=km
New Line.SBT_23954 phases=2 bus1=ET17_1582.1.4 bus2=BT287531.1.4 linecode=60_2 length=0.10817 units=km
New Line.SBT_23955 phases=2 bus1=BT297141.1.4 bus2=BT287501.1.4 linecode=60_2 length=0.0769 units=km
New Line.SBT_13874 phases=2 bus1=BT287501.1.4 bus2=BT563951.1.4 linecode=62_2 length=0.02731 units=km
New Line.SBT_14502 phases=2 bus1=BT287531.1.4 bus2=BT215211.1.4 linecode=62_2 length=0.10647 units=km
New Line.SBT_15454 phases=3 bus1=ET17_1582.1.2.4 bus2=BT659211.1.2.4 linecode=44_3 length=0.06008 units=km
New Line.SBT_23830 phases=4 bus1=BT283661.1.2.3.4 bus2=BT283671.1.2.3.4 linecode=73_4 length=0.03812 units=km
New Line.SBT_23851 phases=4 bus1=ET17_1608.1.2.3.4 bus2=BT283661.1.2.3.4 linecode=73_4 length=0.04901 units=km
New Line.SBT_23852 phases=4 bus1=ET17_1608.1.2.3.4 bus2=BT283651.1.2.3.4 linecode=73_4 length=0.11927 units=km
New Line.SBT_23856 phases=4 bus1=BT283671.1.2.3.4 bus2=BT283681.1.2.3.4 linecode=73_4 length=0.05109 units=km
New Line.SBT_34493 phases=4 bus1=BT283691.1.2.3.4 bus2=BT802331.1.2.3.4 linecode=74_4 length=0.03394 units=km
New Line.SBT_34494 phases=4 bus1=BT802331.1.2.3.4 bus2=BT802341.1.2.3.4 linecode=74_4 length=0.04522 units=km
New Line.SBT_9356 phases=4 bus1=ET17_1608.1.2.3.4 bus2=BT300931.1.2.3.4 linecode=97_4 length=0.04272 units=km
New Line.SBT_9362 phases=4 bus1=BT283681.1.2.3.4 bus2=BT283691.1.2.3.4 linecode=73_4 length=0.062 units=km
New Line.SBT_8838 phases=3 bus1=BT327311.1.2.4 bus2=BT327301.1.2.4 linecode=76_3 length=0.11705 units=km
New Line.SBT_31517 phases=3 bus1=BT770421.1.2.4 bus2=BT379951.1.2.4 linecode=59_3 length=0.04295 units=km
New Line.SBT_31518 phases=3 bus1=ET17_2080.1.2.4 bus2=BT770421.1.2.4 linecode=59_3 length=0.05846 units=km
New Line.SBT_31519 phases=3 bus1=BT379951.1.2.4 bus2=BT770431.1.2.4 linecode=59_3 length=0.06677 units=km
New Line.SBT_28934 phases=3 bus1=ET17_2080.1.2.4 bus2=BT327311.1.2.4 linecode=56_3 length=0.10341 units=km
New Line.SBT_34409 phases=3 bus1=ET17_2107.1.2.4 bus2=BT245142.1.2.4 linecode=44_3 length=0.054 units=km
New Line.SBT_34410 phases=2 bus1=BT245142.1.4 bus2=BT245151.1.4 linecode=60_2 length=0.17415 units=km
New Line.SBT_34411 phases=3 bus1=ET17_2107.1.2.4 bus2=BT245191.1.2.4 linecode=44_3 length=0.13641 units=km
New Line.SBT_8851 phases=3 bus1=BT245191.1.2.4 bus2=BT245201.1.2.4 linecode=44_3 length=0.08199 units=km
New Line.SBT_8852 phases=3 bus1=BT245201.1.2.4 bus2=BT245211.1.2.4 linecode=44_3 length=0.05517 units=km
New Line.SBT_8004 phases=3 bus1=ET17_2137.1.2.4 bus2=BT164921.1.2.4 linecode=44_3 length=0.13599 units=km
New Line.SBT_18387 phases=2 bus1=BT164921.1.4 bus2=BT463941.1.4 linecode=60_2 length=0.09402 units=km
New Line.SBT_23084 phases=3 bus1=ET17_2137.1.2.4 bus2=BT164901.1.2.4 linecode=44_3 length=0.0408 units=km
New Line.SBT_13698 phases=3 bus1=BT164921.1.2.4 bus2=BT151481.1.2.4 linecode=59_3 length=0.05903 units=km
New Line.SBT_16462 phases=4 bus1=ET17_23.1.2.3.4 bus2=BT662141.1.2.3.4 linecode=73_4 length=0.0794 units=km
New Line.SBT_16463 phases=4 bus1=ET17_23.1.2.3.4 bus2=BT662161.1.2.3.4 linecode=73_4 length=0.07495 units=km
New Line.SBT_35991 phases=4 bus1=BT662161.1.2.3.4 bus2=BT662231.1.2.3.4 linecode=74_4 length=0.03281 units=km
New Line.SBT_27806 phases=4 bus1=BT662141.1.2.3.4 bus2=BT662131.1.2.3.4 linecode=73_4 length=0.08559 units=km
New Line.SBT_27807 phases=4 bus1=BT662161.1.2.3.4 bus2=BT662171.1.2.3.4 linecode=73_4 length=0.08472 units=km
New Line.SBT_27808 phases=4 bus1=ET17_23.1.2.3.4 bus2=BT183381.1.2.3.4 linecode=73_4 length=0.01562 units=km
New Line.SBT_29052 phases=3 bus1=BT747221.1.2.4 bus2=BT359821.1.2.4 linecode=59_3 length=0.03815 units=km
New Line.SBT_5839 phases=4 bus1=ET17_2397.1.2.3.4 bus2=BT300861.1.2.3.4 linecode=97_4 length=0.06171 units=km
New Line.SBT_5840 phases=4 bus1=ET17_2397.1.2.3.4 bus2=BT300851.1.2.3.4 linecode=97_4 length=0.0359 units=km
New Line.SBT_5841 phases=4 bus1=ET17_2397.1.2.3.4 bus2=BT747221.1.2.3.4 linecode=73_4 length=0.0759 units=km
New Line.SBT_6582 phases=3 bus1=BT359831.1.2.4 bus2=BT359841.1.2.4 linecode=59_3 length=0.07794 units=km
New Line.SBT_22256 phases=3 bus1=BT359821.1.2.4 bus2=BT359831.1.2.4 linecode=59_3 length=0.09205 units=km
New Line.SBT_22257 phases=2 bus1=BT359841.1.4 bus2=BT359851.1.4 linecode=62_2 length=0.03536 units=km
New Line.SBT_21836 phases=4 bus1=BT300861.1.2.3.4 bus2=BT300871.1.2.3.4 linecode=97_4 length=0.07312 units=km
New Line.SBT_22397 phases=2 bus1=BT245111.2.4 bus2=BT245121.2.4 linecode=60_2 length=0.0679 units=km
New Line.SBT_22968 phases=2 bus1=BT245101.2.4 bus2=BT245111.2.4 linecode=60_2 length=0.08374 units=km
New Line.SBT_15575 phases=3 bus1=BT244341.1.2.4 bus2=BT663671.1.2.4 linecode=44_3 length=0.04754 units=km
New Line.SBT_15576 phases=3 bus1=BT663671.1.2.4 bus2=BT663681.1.2.4 linecode=44_3 length=0.06531 units=km
New Line.SBT_6816 phases=4 bus1=ET17_24.1.2.3.4 bus2=BT245101.1.2.3.4 linecode=97_4 length=0.05814 units=km
New Line.SBT_6827 phases=3 bus1=BT245051.1.2.4 bus2=BT244341.1.2.4 linecode=44_3 length=0.11992 units=km
New Line.SBT_6828 phases=3 bus1=BT245071.1.2.4 bus2=BT245081.1.2.4 linecode=44_3 length=0.07509 units=km
New Line.SBT_35961 phases=4 bus1=BT802321.1.2.3.4 bus2=BT814141.1.2.3.4 linecode=74_4 length=0.0618 units=km
New Line.SBT_35962 phases=4 bus1=BT814141.1.2.3.4 bus2=BT814151.1.2.3.4 linecode=74_4 length=0.03724 units=km
New Line.SBT_34483 phases=4 bus1=ET17_24.1.2.3.4 bus2=BT245051.1.2.3.4 linecode=73_4 length=0.02138 units=km
New Line.SBT_34484 phases=4 bus1=BT802321.1.2.3.4 bus2=BT245061.1.2.3.4 linecode=73_4 length=0.05235 units=km
New Line.SBT_34485 phases=4 bus1=BT245061.1.2.3.4 bus2=BT245071.1.2.3.4 linecode=73_4 length=0.06012 units=km
New Line.SBT_34487 phases=4 bus1=BT245051.1.2.3.4 bus2=BT802321.1.2.3.4 linecode=73_4 length=0.04075 units=km
New Line.SBT_7262 phases=4 bus1=BT666611.1.2.3.4 bus2=BT666621.1.2.3.4 linecode=58_4 length=0.07444 units=km
New Line.SBT_7072 phases=4 bus1=BT244191.1.2.3.4 bus2=BT666531.1.2.3.4 linecode=58_4 length=0.05437 units=km
New Line.SBT_7073 phases=4 bus1=ET17_240.1.2.3.4 bus2=BT244191.1.2.3.4 linecode=58_4 length=0.05037 units=km
New Line.SBT_7074 phases=4 bus1=BT666531.1.2.3.4 bus2=BT666541.1.2.3.4 linecode=58_4 length=0.02162 units=km
New Line.SBT_7075 phases=4 bus1=BT666581.1.2.3.4 bus2=BT666611.1.2.3.4 linecode=58_4 length=0.04757 units=km
New Line.SBT_32016 phases=4 bus1=ET17_240.1.2.3.4 bus2=BT666412.1.2.3.4 linecode=65_4 length=0.05471 units=km
New Line.SBT_27721 phases=4 bus1=BT244191.1.2.3.4 bus2=BT244211.1.2.3.4 linecode=58_4 length=0.05355 units=km
New Line.SBT_16311 phases=4 bus1=BT244191.1.2.3.4 bus2=BT637691.1.2.3.4 linecode=58_4 length=0.02293 units=km
New Line.SBT_16312 phases=4 bus1=BT666621.1.2.3.4 bus2=BT244151.1.2.3.4 linecode=58_4 length=0.05204 units=km
New Line.SBT_22541 phases=4 bus1=BT666541.1.2.3.4 bus2=BT666581.1.2.3.4 linecode=58_4 length=0.07057 units=km
New Line.SBT_22542 phases=4 bus1=BT666581.1.2.3.4 bus2=BT655541.1.2.3.4 linecode=58_4 length=0.02702 units=km
New Line.SBT_31990 phases=2 bus1=ET17_2424.2.4 bus2=BT330312.2.4 linecode=62_2 length=0.06866 units=km
New Line.SBT_31991 phases=2 bus1=BT330312.2.4 bus2=BT628201.2.4 linecode=60_2 length=0.08329 units=km
New Line.SBT_31992 phases=2 bus1=BT628201.2.4 bus2=BT628211.2.4 linecode=60_2 length=0.16266 units=km
New Line.SBT_31993 phases=2 bus1=BT628211.2.4 bus2=BT628221.2.4 linecode=60_2 length=0.11459 units=km
New Line.SBT_31994 phases=2 bus1=BT674781.2.4 bus2=BT628231.2.4 linecode=60_2 length=0.07921 units=km
New Line.SBT_31995 phases=2 bus1=BT628221.2.4 bus2=BT674721.2.4 linecode=60_2 length=0.05903 units=km
New Line.SBT_31996 phases=2 bus1=BT628221.2.4 bus2=BT674781.2.4 linecode=60_2 length=0.07184 units=km
New Line.SBT_27155 phases=3 bus1=ET17_25.1.2.4 bus2=BT245161.1.2.4 linecode=44_3 length=0.01315 units=km
New Line.SBT_2520 phases=3 bus1=BT245161.1.2.4 bus2=BT243331.1.2.4 linecode=44_3 length=0.05728 units=km
New Line.SBT_7703 phases=3 bus1=BT243371.1.2.4 bus2=BT243381.1.2.4 linecode=44_3 length=0.10316 units=km
New Line.SBT_7704 phases=3 bus1=BT243381.1.2.4 bus2=BT243391.1.2.4 linecode=44_3 length=0.10858 units=km
New Line.SBT_3974 phases=2 bus1=BT216661.1.4 bus2=BT216651.1.4 linecode=60_2 length=0.0958 units=km
New Line.SBT_3975 phases=3 bus1=BT216671.1.2.4 bus2=BT216661.1.2.4 linecode=44_3 length=0.0658 units=km
New Line.SBT_4573 phases=3 bus1=ET17_25.1.2.4 bus2=BT216671.1.2.4 linecode=44_3 length=0.11587 units=km
New Line.SBT_22977 phases=3 bus1=BT243331.1.2.4 bus2=BT243371.1.2.4 linecode=44_3 length=0.11086 units=km
New Line.SBT_14236 phases=2 bus1=BT216651.1.4 bus2=BT636621.1.4 linecode=60_2 length=0.02879 units=km
New Line.SBT_15121 phases=3 bus1=BT216661.1.2.4 bus2=BT669481.1.2.4 linecode=44_3 length=0.02202 units=km
New Line.SBT_23725 phases=3 bus1=ET17_2500.1.2.4 bus2=BT368561.1.2.4 linecode=59_3 length=0.03401 units=km
New Line.SBT_23487 phases=3 bus1=BT368591.1.2.4 bus2=BT349731.1.2.4 linecode=59_3 length=0.1092 units=km
New Line.SBT_23488 phases=3 bus1=BT349731.1.2.4 bus2=BT349741.1.2.4 linecode=59_3 length=0.07161 units=km
New Line.SBT_23510 phases=3 bus1=BT235301.1.2.4 bus2=BT368591.1.2.4 linecode=59_3 length=0.06825 units=km
New Line.SBT_23516 phases=3 bus1=BT337241.1.2.4 bus2=BT337251.1.2.4 linecode=59_3 length=0.11729 units=km
New Line.SBT_8760 phases=3 bus1=BT235301.1.2.4 bus2=BT235311.1.2.4 linecode=59_3 length=0.06277 units=km
New Line.SBT_8767 phases=3 bus1=BT235311.1.2.4 bus2=BT235321.1.2.4 linecode=59_3 length=0.19681 units=km
New Line.SBT_8768 phases=3 bus1=BT337231.1.2.4 bus2=BT337241.1.2.4 linecode=59_3 length=0.09201 units=km
New Line.SBT_8769 phases=3 bus1=BT235321.1.2.4 bus2=BT368581.1.2.4 linecode=59_3 length=0.1145 units=km
New Line.SBT_8718 phases=3 bus1=ET17_2500.1.2.4 bus2=BT337221.1.2.4 linecode=59_3 length=0.14043 units=km
New Line.SBT_8719 phases=3 bus1=BT337221.1.2.4 bus2=BT337231.1.2.4 linecode=59_3 length=0.13418 units=km
New Line.SBT_9379 phases=3 bus1=ET17_2500.1.2.4 bus2=BT235301.1.2.4 linecode=59_3 length=0.07824 units=km
New Line.SBT_23547 phases=2 bus1=BT587321.2.4 bus2=BT327531.2.4 linecode=62_2 length=0.06014 units=km
New Line.SBT_13683 phases=2 bus1=BT558831.2.4 bus2=BT558851.2.4 linecode=62_2 length=0.05099 units=km
New Line.SBT_12925 phases=2 bus1=BT478781.2.4 bus2=BT587321.2.4 linecode=62_2 length=0.15416 units=km
New Line.SBT_5141 phases=3 bus1=ET17_2640.1.2.4 bus2=BT338891.1.2.4 linecode=44_3 length=0.09661 units=km
New Line.SBT_25848 phases=2 bus1=BT558831.2.4 bus2=BT478781.2.4 linecode=60_2 length=0.05036 units=km
New Line.SBT_26273 phases=2 bus1=ET17_2640.2.4 bus2=BT558831.2.4 linecode=60_2 length=0.10856 units=km
New Line.SBT_16075 phases=2 bus1=ET17_3247.1.4 bus2=BT655431.1.4 linecode=62_2 length=0.07111 units=km
New Line.SBT_13129 phases=3 bus1=ET17_3280.1.2.4 bus2=BT602111.1.2.4 linecode=59_3 length=0.14517 units=km
New Line.SBT_13837 phases=4 bus1=BT244311.1.2.3.4 bus2=BT583931.1.2.3.4 linecode=73_4 length=0.025 units=km
New Line.SBT_17523 phases=4 bus1=ET17_3496.1.2.3.4 bus2=BT693831.1.2.3.4 linecode=73_4 length=0.06291 units=km
New Line.SBT_17524 phases=4 bus1=ET17_3496.1.2.3.4 bus2=BT693851.1.2.3.4 linecode=73_4 length=0.0346 units=km
New Line.SBT_28416 phases=4 bus1=BT693831.1.2.3.4 bus2=BT244311.1.2.3.4 linecode=73_4 length=0.04943 units=km
New Line.SBT_26668 phases=2 bus1=ET17_3717.2.4 bus2=BT478801.2.4 linecode=62_2 length=0.11755 units=km
New Line.SBT_34523 phases=2 bus1=ET17_3717.1.4 bus2=BT802601.1.4 linecode=62_2 length=0.07863 units=km
New Line.SBT_34524 phases=2 bus1=BT802601.1.4 bus2=BT802611.1.4 linecode=62_2 length=0.0575 units=km
New Line.SBT_36284 phases=4 bus1=BT761991.1.2.3.4 bus2=BT297871.1.2.3.4 linecode=97_4 length=0.09523 units=km
New Line.SBT_36285 phases=4 bus1=BT297871.1.2.3.4 bus2=BT297881.1.2.3.4 linecode=97_4 length=0.06671 units=km
New Line.SBT_27940 phases=2 bus1=ET17_3779.1.4 bus2=BT744071.1.4 linecode=62_2 length=0.03785 units=km
New Line.SBT_30536 phases=4 bus1=ET17_3779.1.2.3.4 bus2=BT761991.1.2.3.4 linecode=97_4 length=0.06994 units=km
New Line.SBT_7326 phases=4 bus1=BT379971.1.2.3.4 bus2=BT183431.1.2.3.4 linecode=97_4 length=0.10689 units=km
New Line.SBT_7375 phases=4 bus1=ET17_3783.1.2.3.4 bus2=BT183461.1.2.3.4 linecode=73_4 length=0.08062 units=km
New Line.SBT_7376 phases=4 bus1=BT183461.1.2.3.4 bus2=BT183471.1.2.3.4 linecode=73_4 length=0.0441 units=km
New Line.SBT_22749 phases=4 bus1=BT183421.1.2.3.4 bus2=BT379971.1.2.3.4 linecode=97_4 length=0.0876 units=km
New Line.SBT_22584 phases=4 bus1=ET17_3783.1.2.3.4 bus2=BT183481.1.2.3.4 linecode=73_4 length=0.11461 units=km
New Line.SBT_16502 phases=4 bus1=ET17_3783.1.2.3.4 bus2=BT183421.1.2.3.4 linecode=73_4 length=0.09675 units=km
New Line.SBT_9644 phases=4 bus1=BT183471.1.2.3.4 bus2=BT632321.1.2.3.4 linecode=73_4 length=0.0559 units=km
New Line.SBT_15469 phases=2 bus1=BT297791.1.4 bus2=BT655251.1.4 linecode=62_2 length=0.06986 units=km
New Line.SBT_13902 phases=2 bus1=ET17_3880.2.4 bus2=BT581441.2.4 linecode=62_2 length=0.07697 units=km
New Line.SBT_28792 phases=2 bus1=ET17_3880.1.4 bus2=BT297791.1.4 linecode=62_2 length=0.08237 units=km
New Line.SBT_26391 phases=2 bus1=BT581441.2.4 bus2=BT581451.2.4 linecode=62_2 length=0.07737 units=km
New Line.SBT_28376 phases=2 bus1=BT695671.1.4 bus2=BT695681.1.4 linecode=62_2 length=0.07225 units=km
New Line.SBT_8113 phases=2 bus1=BT263691.1.4 bus2=BT263701.1.4 linecode=60_2 length=0.12666 units=km
New Line.SBT_8053 phases=2 bus1=BT263681.1.4 bus2=BT263691.1.4 linecode=60_2 length=0.12027 units=km
New Line.SBT_17458 phases=2 bus1=ET17_39.1.4 bus2=BT695671.1.4 linecode=62_2 length=0.01965 units=km
New Line.SBT_23125 phases=3 bus1=ET17_39.1.2.4 bus2=BT263681.1.2.4 linecode=44_3 length=0.04026 units=km
New Line.SBT_15386 phases=3 bus1=ET17_4075.1.2.4 bus2=BT655491.1.2.4 linecode=59_3 length=0.04627 units=km
New Line.SBT_15387 phases=2 bus1=BT655491.1.4 bus2=BT655501.1.4 linecode=60_2 length=0.13564 units=km
New Line.SBT_36111 phases=2 bus1=BT201711.1.4 bus2=BT201731.1.4 linecode=62_2 length=0.07305 units=km
New Line.SBT_30748 phases=3 bus1=BT655461.3.1.4 bus2=BT201711.3.1.4 linecode=59_3 length=0.07589 units=km
New Line.SBT_30749 phases=3 bus1=ET17_4075.3.1.4 bus2=BT655461.3.1.4 linecode=59_3 length=0.06943 units=km
New Line.SBT_30751 phases=2 bus1=BT655461.1.4 bus2=BT763631.1.4 linecode=62_2 length=0.06295 units=km
New Line.SBT_30752 phases=2 bus1=BT763631.1.4 bus2=BT763641.1.4 linecode=62_2 length=0.04037 units=km
New Line.SBT_31711 phases=4 bus1=BT636901.1.2.3.4 bus2=BT771971.1.2.3.4 linecode=74_4 length=0.03427 units=km
New Line.SBT_31712 phases=4 bus1=BT771971.1.2.3.4 bus2=BT771981.1.2.3.4 linecode=74_4 length=0.04137 units=km
New Line.SBT_26903 phases=4 bus1=BT636891.1.2.3.4 bus2=BT636901.1.2.3.4 linecode=73_4 length=0.04465 units=km
New Line.SBT_34412 phases=4 bus1=ET17_4128.1.2.3.4 bus2=BT717231.1.2.3.4 linecode=74_4 length=0.03276 units=km
New Line.SBT_9943 phases=4 bus1=ET17_4128.1.2.3.4 bus2=BT636891.1.2.3.4 linecode=73_4 length=0.08521 units=km
New Line.SBT_27312 phases=3 bus1=ET17_4175.1.2.4 bus2=BT663641.1.2.4 linecode=59_3 length=0.05162 units=km
New Line.SBT_28296 phases=2 bus1=BT498121.1.4 bus2=BT663631.1.4 linecode=77_2 length=0.06943 units=km
New Line.SBT_28297 phases=3 bus1=BT663641.1.2.4 bus2=BT663451.1.2.4 linecode=59_3 length=0.04742 units=km
New Line.SBT_15574 phases=2 bus1=BT663631.1.4 bus2=BT663581.1.4 linecode=60_2 length=0.01442 units=km
New Line.SBT_17305 phases=2 bus1=ET17_4175.1.4 bus2=BT498121.1.4 linecode=77_2 length=0.03614 units=km
New Line.SBT_15470 phases=3 bus1=ET17_4179.1.2.4 bus2=BT655321.1.2.4 linecode=59_3 length=0.02121 units=km
New Line.SBT_15471 phases=3 bus1=BT165761.1.2.4 bus2=BT165751.1.2.4 linecode=59_3 length=0.06168 units=km
New Line.SBT_15472 phases=3 bus1=BT201741.1.2.4 bus2=BT620051.1.2.4 linecode=59_3 length=0.07033 units=km
New Line.SBT_27255 phases=3 bus1=ET17_4179.1.2.4 bus2=BT655341.1.2.4 linecode=59_3 length=0.14768 units=km
New Line.SBT_27256 phases=3 bus1=BT655321.1.2.4 bus2=BT165761.1.2.4 linecode=59_3 length=0.04332 units=km
New Line.SBT_27257 phases=3 bus1=BT165751.1.2.4 bus2=BT201741.1.2.4 linecode=59_3 length=0.05239 units=km
New Line.SBT_30364 phases=4 bus1=ET17_4331.1.2.3.4 bus2=BT760581.1.2.3.4 linecode=74_4 length=0.05357 units=km
New Line.SBT_30365 phases=4 bus1=BT760581.1.2.3.4 bus2=BT760591.1.2.3.4 linecode=74_4 length=0.04728 units=km
New Line.SBT_30366 phases=4 bus1=BT760591.1.2.3.4 bus2=BT760601.1.2.3.4 linecode=74_4 length=0.05023 units=km
New Line.SBT_23448 phases=4 bus1=ET17_4331.1.2.3.4 bus2=BT655191.1.2.3.4 linecode=75_4 length=0.05304 units=km
New Line.SBT_17549 phases=2 bus1=BT244271.1.4 bus2=BT697741.1.4 linecode=62_2 length=0.08805 units=km
New Line.SBT_17908 phases=3 bus1=BT244271.1.2.4 bus2=BT96571.1.2.4 linecode=59_3 length=0.07932 units=km
...
